56649450
  -OEChem-01082001223D

 52 54  0     1  0  0  0  0  0999 V2000
   -0.2611    0.4439   -1.0868 S   0  0  0  0  0  0  0  0  0  0  0  0
    4.9095    2.1489    1.1155 F   0  0  0  0  0  0  0  0  0  0  0  0
    6.9864    1.6762    1.5506 F   0  0  0  0  0  0  0  0  0  0  0  0
    6.3367    1.9287   -0.5156 F   0  0  0  0  0  0  0  0  0  0  0  0
   -6.5265   -1.3424   -0.6650 O   0  0  0  0  0  0  0  0  0  0  0  0
   -4.0340   -0.9617    1.2541 O   0  0  0  0  0  0  0  0  0  0  0  0
   -5.0728    0.6997    0.0505 N   0  0  0  0  0  0  0  0  0  0  0  0
   -2.7818    0.3088   -0.2487 N   0  0  0  0  0  0  0  0  0  0  0  0
   -8.2580   -0.8887    0.7806 N   0  0  0  0  0  0  0  0  0  0  0  0
    4.9118   -0.5507   -1.6695 N   0  0  0  0  0  0  0  0  0  0  0  0
   -1.1207   -1.2396    0.6765 N   0  0  0  0  0  0  0  0  0  0  0  0
   -6.3482    0.5782    0.7470 C   0  0  1  0  0  0  0  0  0  0  0  0
   -7.1075    1.8506    0.3922 C   0  0  0  0  0  0  0  0  0  0  0  0
   -6.5733    2.2082   -0.9915 C   0  0  0  0  0  0  0  0  0  0  0  0
   -5.1118    1.7912   -0.9234 C   0  0  0  0  0  0  0  0  0  0  0  0
   -7.0299   -0.6453    0.2125 C   0  0  0  0  0  0  0  0  0  0  0  0
   -3.9514   -0.0607    0.4174 C   0  0  0  0  0  0  0  0  0  0  0  0
    5.6724   -0.0918    0.5823 C   0  0  0  0  0  0  0  0  0  0  0  0
    4.5609   -0.3513   -0.3792 C   0  0  0  0  0  0  0  0  0  0  0  0
    5.9749    1.4307    0.6889 C   0  0  0  0  0  0  0  0  0  0  0  0
    6.9948   -0.8103    0.1603 C   0  0  0  0  0  0  0  0  0  0  0  0
    5.4020   -0.5803    2.0463 C   0  0  0  0  0  0  0  0  0  0  0  0
    3.2545   -0.3762    0.0821 C   0  0  0  0  0  0  0  0  0  0  0  0
    2.2433   -0.6211   -0.8402 C   0  0  0  0  0  0  0  0  0  0  0  0
   -1.4882   -0.2524   -0.1099 C   0  0  0  0  0  0  0  0  0  0  0  0
    0.8668   -0.6582   -0.4128 C   0  0  0  0  0  0  0  0  0  0  0  0
    0.2298   -1.4707    0.5016 C   0  0  0  0  0  0  0  0  0  0  0  0
    2.5647   -0.8308   -2.1767 C   0  0  0  0  0  0  0  0  0  0  0  0
    3.9017   -0.7857   -2.5369 C   0  0  0  0  0  0  0  0  0  0  0  0
    0.8550   -2.5474    1.2979 C   0  0  0  0  0  0  0  0  0  0  0  0
   -6.1914    0.4635    1.8249 H   0  0  0  0  0  0  0  0  0  0  0  0
   -6.8366    2.6472    1.0964 H   0  0  0  0  0  0  0  0  0  0  0  0
   -8.1968    1.7546    0.3965 H   0  0  0  0  0  0  0  0  0  0  0  0
   -7.0957    1.6187   -1.7544 H   0  0  0  0  0  0  0  0  0  0  0  0
   -6.6973    3.2666   -1.2370 H   0  0  0  0  0  0  0  0  0  0  0  0
   -4.7261    1.4580   -1.8913 H   0  0  0  0  0  0  0  0  0  0  0  0
   -4.4834    2.6046   -0.5444 H   0  0  0  0  0  0  0  0  0  0  0  0
   -2.8168    1.0701   -0.9186 H   0  0  0  0  0  0  0  0  0  0  0  0
    6.2967   -0.4807    2.6724 H   0  0  0  0  0  0  0  0  0  0  0  0
    5.1055   -1.6357    2.0574 H   0  0  0  0  0  0  0  0  0  0  0  0
    4.6129    0.0004    2.5361 H   0  0  0  0  0  0  0  0  0  0  0  0
    7.7973   -0.6381    0.8867 H   0  0  0  0  0  0  0  0  0  0  0  0
    6.8413   -1.8929    0.0792 H   0  0  0  0  0  0  0  0  0  0  0  0
    7.3562   -0.4509   -0.8102 H   0  0  0  0  0  0  0  0  0  0  0  0
   -8.6452   -0.3021    1.5129 H   0  0  0  0  0  0  0  0  0  0  0  0
   -8.8170   -1.6850    0.4928 H   0  0  0  0  0  0  0  0  0  0  0  0
    3.0015   -0.1898    1.1194 H   0  0  0  0  0  0  0  0  0  0  0  0
    1.8102   -1.0345   -2.9299 H   0  0  0  0  0  0  0  0  0  0  0  0
    4.2055   -0.9451   -3.5663 H   0  0  0  0  0  0  0  0  0  0  0  0
    1.4978   -3.1778    0.6752 H   0  0  0  0  0  0  0  0  0  0  0  0
    0.0945   -3.1939    1.7479 H   0  0  0  0  0  0  0  0  0  0  0  0
    1.4586   -2.1255    2.1075 H   0  0  0  0  0  0  0  0  0  0  0  0
  1 25  1  0  0  0  0
  1 26  1  0  0  0  0
  2 20  1  0  0  0  0
  3 20  1  0  0  0  0
  4 20  1  0  0  0  0
  5 16  2  0  0  0  0
  6 17  2  0  0  0  0
  7 12  1  0  0  0  0
  7 15  1  0  0  0  0
  7 17  1  0  0  0  0
  8 17  1  0  0  0  0
  8 25  1  0  0  0  0
  8 38  1  0  0  0  0
  9 16  1  0  0  0  0
  9 45  1  0  0  0  0
  9 46  1  0  0  0  0
 10 19  2  0  0  0  0
 10 29  1  0  0  0  0
 11 25  2  0  0  0  0
 11 27  1  0  0  0  0
 12 13  1  0  0  0  0
 12 16  1  0  0  0  0
 12 31  1  0  0  0  0
 13 14  1  0  0  0  0
 13 32  1  0  0  0  0
 13 33  1  0  0  0  0
 14 15  1  0  0  0  0
 14 34  1  0  0  0  0
 14 35  1  0  0  0  0
 15 36  1  0  0  0  0
 15 37  1  0  0  0  0
 18 19  1  0  0  0  0
 18 20  1  0  0  0  0
 18 21  1  0  0  0  0
 18 22  1  0  0  0  0
 19 23  1  0  0  0  0
 21 42  1  0  0  0  0
 21 43  1  0  0  0  0
 21 44  1  0  0  0  0
 22 39  1  0  0  0  0
 22 40  1  0  0  0  0
 22 41  1  0  0  0  0
 23 24  2  0  0  0  0
 23 47  1  0  0  0  0
 24 26  1  0  0  0  0
 24 28  1  0  0  0  0
 26 27  2  0  0  0  0
 27 30  1  0  0  0  0
 28 29  2  0  0  0  0
 28 48  1  0  0  0  0
 29 49  1  0  0  0  0
 30 50  1  0  0  0  0
 30 51  1  0  0  0  0
 30 52  1  0  0  0  0
M  END
> <PUBCHEM_COMPOUND_CID>
56649450

> <PUBCHEM_CONFORMER_RMSD>
1

> <PUBCHEM_CONFORMER_DIVERSEORDER>
1
74
34
89
70
72
92
91
61
50
35
32
79
39
56
75
71
90
19
66
22
63
52
65
53
81
37
77
49
16
41
20
62
21
17
59
36
84
33
55
51
87
8
86
7
11
46
67
43
82
58
85
38
47
60
42
54
24
30
44
28
69
40
31
68
13
27
6
23
25
73
2
80
78
14
88
26
29
12
57
4
76
48
64
9
5
15
45
83
18
10
3

> <PUBCHEM_MMFF94_PARTIAL_CHARGES>
32
1 -0.08
10 -0.62
11 -0.57
12 0.36
15 0.3
16 0.57
17 0.69
18 0.14
19 0.17
2 -0.34
20 1.02
23 -0.15
24 0.05
25 0.44
26 -0.01
27 0.05
28 -0.15
29 0.16
3 -0.34
30 0.18
38 0.37
4 -0.34
45 0.37
46 0.37
47 0.15
48 0.15
49 0.15
5 -0.57
6 -0.57
7 -0.66
8 -0.49
9 -0.8

> <PUBCHEM_EFFECTIVE_ROTOR_COUNT>
8

> <PUBCHEM_PHARMACOPHORE_FEATURES>
9
1 10 acceptor
1 5 acceptor
1 6 acceptor
1 8 donor
1 9 donor
3 18 21 22 hydrophobe
5 1 11 25 26 27 rings
5 7 12 13 14 15 rings
6 10 19 23 24 28 29 rings

> <PUBCHEM_HEAVY_ATOM_COUNT>
30

> <PUBCHEM_ATOM_DEF_STEREO_COUNT>
1

> <PUBCHEM_ATOM_UDEF_STEREO_COUNT>
0

> <PUBCHEM_BOND_DEF_STEREO_COUNT>
0

> <PUBCHEM_BOND_UDEF_STEREO_COUNT>
0

> <PUBCHEM_ISOTOPIC_ATOM_COUNT>
0

> <PUBCHEM_COMPONENT_COUNT>
1

> <PUBCHEM_CACTVS_TAUTO_COUNT>
12

> <PUBCHEM_CONFORMER_ID>
036066EA00000001

> <PUBCHEM_MMFF94_ENERGY>
76.8948

> <PUBCHEM_FEATURE_SELFOVERLAP>
45.671

> <PUBCHEM_SHAPE_FINGERPRINT>
10 15 18412545435354285815
10638233 991 14979955874081020435
10693767 8 13686035159535687860
11524674 6 12468646027995898353
11719270 70 17385444314916477763
11761917 142 18043806481651292445
12166972 35 8502362348161511671
12422481 6 16588300540715076438
125118 31 18272937085295999673
12516196 113 18343587330678750117
12616971 3 16081093696676483999
13533116 47 18114458951763421810
13673619 4 11458419129408776758
13692114 37 18041282166088543691
14251764 18 16732990816305750374
14294032 229 17749106677691037839
14347424 109 14996284743093087276
14461889 52 18131071566761802663
14767858 380 15267342920408373306
14849402 71 18262241139555901397
15183329 4 15646774487638761895
1577012 14 16805335370489466021
18335252 114 17131833167063126144
19301679 30 15069162495886288832
19319366 153 15769490928943995054
20157964 124 17632863014684654566
20511986 3 17968367962782859475
21130935 74 18114462258708982827
21150785 3 12895064120098962178
21344244 78 16443058418494618596
21521721 280 16487257668643675695
21641784 216 15051468101671869122
22149856 69 18043548144200279993
22224240 67 18040997349616064171
23081809 10 16805615788783135999
23559900 14 13398044493813739443
23569917 315 17530974566036646219
23569943 247 8862126946131453501
24771293 8 18334859449847362653
24771750 20 17628631156990061481
255183 451 13828751725776381500
34797466 226 17846224353702469031
397830 11 18200036277682459211
4073 2 17775288291727365879
4340502 62 18260830371494722478
465052 167 13334736821772610442
504579 68 15195573389779554428
5109719 28 18338245945803200873
54039377 194 13479397338179086712
5758199 1 18333453136342613347
58083652 198 14996007661983965469

> <PUBCHEM_SHAPE_MULTIPOLES>
562.77
24.18
1.98
1.69
20.21
0.32
0.61
7.61
-5.91
0.92
-0.53
-3.04
-0.01
1.31

> <PUBCHEM_SHAPE_SELFOVERLAP>
1194.335

> <PUBCHEM_SHAPE_VOLUME>
319.7

> <PUBCHEM_COORDINATE_TYPE>
2
5
10

$$$$
