67462786
  -OEChem-01082001273D

 63 66  0     0  0  0  0  0  0999 V2000
   -1.9679   -3.2645    2.7614 O   0  0  0  0  0  0  0  0  0  0  0  0
   -3.1606   -3.8107   -1.8282 O   0  0  0  0  0  0  0  0  0  0  0  0
   -1.7659    0.5243   -0.2245 N   0  0  0  0  0  0  0  0  0  0  0  0
   -5.0885    2.1383   -0.7845 N   0  0  0  0  0  0  0  0  0  0  0  0
    3.0360    0.4250   -0.1637 N   0  0  0  0  0  0  0  0  0  0  0  0
    3.0912    3.1169    0.5221 N   0  0  0  0  0  0  0  0  0  0  0  0
    6.7532   -1.3421   -0.5486 N   0  0  0  0  0  0  0  0  0  0  0  0
    7.5860   -0.3232   -0.2761 N   0  0  0  0  0  0  0  0  0  0  0  0
   -2.8218    1.2335   -0.9666 C   0  0  0  0  0  0  0  0  0  0  0  0
   -4.0356    1.4300   -0.0675 C   0  0  0  0  0  0  0  0  0  0  0  0
   -6.2594    2.3238    0.0612 C   0  0  0  0  0  0  0  0  0  0  0  0
   -0.5350    1.1833   -0.0340 C   0  0  0  0  0  0  0  0  0  0  0  0
   -2.0359   -0.8541    0.0100 C   0  0  0  0  0  0  0  0  0  0  0  0
    0.6634    0.4888   -0.1894 C   0  0  0  0  0  0  0  0  0  0  0  0
   -0.5073    2.5270    0.3083 C   0  0  0  0  0  0  0  0  0  0  0  0
   -7.0845    1.0410    0.1112 C   0  0  0  0  0  0  0  0  0  0  0  0
   -7.0892    3.4888   -0.4688 C   0  0  0  0  0  0  0  0  0  0  0  0
    1.8935    1.1166   -0.0080 C   0  0  0  0  0  0  0  0  0  0  0  0
   -2.4703   -1.6673   -1.0367 C   0  0  0  0  0  0  0  0  0  0  0  0
   -1.8670   -1.3908    1.2863 C   0  0  0  0  0  0  0  0  0  0  0  0
    1.9215    2.4797    0.3392 C   0  0  0  0  0  0  0  0  0  0  0  0
    0.7182    3.1647    0.4921 C   0  0  0  0  0  0  0  0  0  0  0  0
   -2.1323   -2.7407    1.5159 C   0  0  0  0  0  0  0  0  0  0  0  0
   -2.7358   -3.0173   -0.8070 C   0  0  0  0  0  0  0  0  0  0  0  0
   -2.5667   -3.5540    0.4692 C   0  0  0  0  0  0  0  0  0  0  0  0
    4.1956    1.0806    0.0235 C   0  0  0  0  0  0  0  0  0  0  0  0
    4.2228    2.4074    0.3617 C   0  0  0  0  0  0  0  0  0  0  0  0
    5.3993    0.3245   -0.1488 C   0  0  0  0  0  0  0  0  0  0  0  0
    5.4326   -1.0066   -0.4859 C   0  0  0  0  0  0  0  0  0  0  0  0
    6.7531    0.6922   -0.0326 C   0  0  0  0  0  0  0  0  0  0  0  0
   -1.5219   -2.3765    3.7852 C   0  0  0  0  0  0  0  0  0  0  0  0
   -3.3130   -3.1965   -3.1071 C   0  0  0  0  0  0  0  0  0  0  0  0
    7.2921   -2.6422   -0.8688 C   0  0  0  0  0  0  0  0  0  0  0  0
   -3.1069    0.7144   -1.8884 H   0  0  0  0  0  0  0  0  0  0  0  0
   -2.4751    2.2123   -1.3244 H   0  0  0  0  0  0  0  0  0  0  0  0
   -3.7378    1.9939    0.8257 H   0  0  0  0  0  0  0  0  0  0  0  0
   -4.3982    0.4545    0.2713 H   0  0  0  0  0  0  0  0  0  0  0  0
   -5.9593    2.5931    1.0824 H   0  0  0  0  0  0  0  0  0  0  0  0
   -4.7271    3.0444   -1.0828 H   0  0  0  0  0  0  0  0  0  0  0  0
    0.6572   -0.5636   -0.4688 H   0  0  0  0  0  0  0  0  0  0  0  0
   -1.4162    3.1010    0.4640 H   0  0  0  0  0  0  0  0  0  0  0  0
   -7.4351    3.3035   -1.4921 H   0  0  0  0  0  0  0  0  0  0  0  0
   -6.5103    4.4193   -0.4700 H   0  0  0  0  0  0  0  0  0  0  0  0
   -7.3739    0.7117   -0.8934 H   0  0  0  0  0  0  0  0  0  0  0  0
   -6.5464    0.2203    0.5951 H   0  0  0  0  0  0  0  0  0  0  0  0
   -8.0053    1.2008    0.6834 H   0  0  0  0  0  0  0  0  0  0  0  0
   -7.9726    3.6516    0.1583 H   0  0  0  0  0  0  0  0  0  0  0  0
   -2.5437   -1.2348   -2.0264 H   0  0  0  0  0  0  0  0  0  0  0  0
   -1.5340   -0.7130    2.0657 H   0  0  0  0  0  0  0  0  0  0  0  0
    0.7255    4.2179    0.7658 H   0  0  0  0  0  0  0  0  0  0  0  0
   -2.7738   -4.6060    0.6482 H   0  0  0  0  0  0  0  0  0  0  0  0
    5.1360    2.9682    0.5204 H   0  0  0  0  0  0  0  0  0  0  0  0
    4.6538   -1.7319   -0.6828 H   0  0  0  0  0  0  0  0  0  0  0  0
    7.1795    1.6532    0.2185 H   0  0  0  0  0  0  0  0  0  0  0  0
   -1.4443   -2.9608    4.7080 H   0  0  0  0  0  0  0  0  0  0  0  0
   -2.2498   -1.5797    3.9724 H   0  0  0  0  0  0  0  0  0  0  0  0
   -0.5218   -1.9844    3.5709 H   0  0  0  0  0  0  0  0  0  0  0  0
   -3.6702   -3.9699   -3.7952 H   0  0  0  0  0  0  0  0  0  0  0  0
   -2.3543   -2.8405   -3.4995 H   0  0  0  0  0  0  0  0  0  0  0  0
   -4.0753   -2.4101   -3.0897 H   0  0  0  0  0  0  0  0  0  0  0  0
    6.4735   -3.3403   -1.0598 H   0  0  0  0  0  0  0  0  0  0  0  0
    7.8862   -2.9869   -0.0189 H   0  0  0  0  0  0  0  0  0  0  0  0
    7.9161   -2.5455   -1.7608 H   0  0  0  0  0  0  0  0  0  0  0  0
  1 23  1  0  0  0  0
  1 31  1  0  0  0  0
  2 24  1  0  0  0  0
  2 32  1  0  0  0  0
  3  9  1  0  0  0  0
  3 12  1  0  0  0  0
  3 13  1  0  0  0  0
  4 10  1  0  0  0  0
  4 11  1  0  0  0  0
  4 39  1  0  0  0  0
  5 18  2  0  0  0  0
  5 26  1  0  0  0  0
  6 21  2  0  0  0  0
  6 27  1  0  0  0  0
  7  8  1  0  0  0  0
  7 29  1  0  0  0  0
  7 33  1  0  0  0  0
  8 30  2  0  0  0  0
  9 10  1  0  0  0  0
  9 34  1  0  0  0  0
  9 35  1  0  0  0  0
 10 36  1  0  0  0  0
 10 37  1  0  0  0  0
 11 16  1  0  0  0  0
 11 17  1  0  0  0  0
 11 38  1  0  0  0  0
 12 14  2  0  0  0  0
 12 15  1  0  0  0  0
 13 19  2  0  0  0  0
 13 20  1  0  0  0  0
 14 18  1  0  0  0  0
 14 40  1  0  0  0  0
 15 22  2  0  0  0  0
 15 41  1  0  0  0  0
 16 44  1  0  0  0  0
 16 45  1  0  0  0  0
 16 46  1  0  0  0  0
 17 42  1  0  0  0  0
 17 43  1  0  0  0  0
 17 47  1  0  0  0  0
 18 21  1  0  0  0  0
 19 24  1  0  0  0  0
 19 48  1  0  0  0  0
 20 23  2  0  0  0  0
 20 49  1  0  0  0  0
 21 22  1  0  0  0  0
 22 50  1  0  0  0  0
 23 25  1  0  0  0  0
 24 25  2  0  0  0  0
 25 51  1  0  0  0  0
 26 27  2  0  0  0  0
 26 28  1  0  0  0  0
 27 52  1  0  0  0  0
 28 29  2  0  0  0  0
 28 30  1  0  0  0  0
 29 53  1  0  0  0  0
 30 54  1  0  0  0  0
 31 55  1  0  0  0  0
 31 56  1  0  0  0  0
 31 57  1  0  0  0  0
 32 58  1  0  0  0  0
 32 59  1  0  0  0  0
 32 60  1  0  0  0  0
 33 61  1  0  0  0  0
 33 62  1  0  0  0  0
 33 63  1  0  0  0  0
M  END
> <PUBCHEM_COMPOUND_CID>
67462786

> <PUBCHEM_CONFORMER_RMSD>
1

> <PUBCHEM_CONFORMER_DIVERSEORDER>
3
36
83
68
86
46
18
92
113
94
40
115
118
66
111
90
23
70
42
59
19
127
120
93
60
125
117
79
102
45
119
69
112
32
126
14
64
47
109
30
25
9
63
100
48
105
34
124
91
110
77
107
129
29
108
104
82
71
130
41
27
84
20
28
24
12
80
35
103
128
76
88
31
49
50
95
122
132
123
99
17
87
16
61
37
67
97
39
81
131
10
72
43
98
65
21
85
78
74
57
33
26
53
114
6
58
7
96
56
44
4
51
1
38
8
62
11
5
13
54
55
101
73
52
2
22
121
106
75
15
133
89
116

> <PUBCHEM_MMFF94_PARTIAL_CHARGES>
41
1 -0.36
10 0.27
11 0.27
12 0.1
13 0.1
14 -0.15
15 -0.15
18 0.31
19 -0.15
2 -0.36
20 -0.15
21 0.31
22 -0.15
23 0.08
24 0.08
25 -0.15
26 0.36
27 0.16
28 -0.05
29 -0.3
3 -0.57
30 0.14
31 0.28
32 0.28
33 0.26
39 0.36
4 -0.9
40 0.15
41 0.15
48 0.15
49 0.15
5 -0.62
50 0.15
51 0.15
52 0.15
53 0.15
54 0.15
6 -0.62
7 0.31
8 -0.71
9 0.37

> <PUBCHEM_EFFECTIVE_ROTOR_COUNT>
9

> <PUBCHEM_PHARMACOPHORE_FEATURES>
13
1 1 acceptor
1 2 acceptor
1 3 cation
1 4 cation
1 4 donor
1 5 acceptor
1 6 acceptor
1 8 acceptor
3 11 16 17 hydrophobe
5 7 8 28 29 30 rings
6 12 14 15 18 21 22 rings
6 13 19 20 23 24 25 rings
6 5 6 18 21 26 27 rings

> <PUBCHEM_HEAVY_ATOM_COUNT>
33

> <PUBCHEM_ATOM_DEF_STEREO_COUNT>
0

> <PUBCHEM_ATOM_UDEF_STEREO_COUNT>
0

> <PUBCHEM_BOND_DEF_STEREO_COUNT>
0

> <PUBCHEM_BOND_UDEF_STEREO_COUNT>
0

> <PUBCHEM_ISOTOPIC_ATOM_COUNT>
0

> <PUBCHEM_COMPONENT_COUNT>
1

> <PUBCHEM_CACTVS_TAUTO_COUNT>
1

> <PUBCHEM_CONFORMER_ID>
0405668200000003

> <PUBCHEM_MMFF94_ENERGY>
114.7031

> <PUBCHEM_FEATURE_SELFOVERLAP>
66.014

> <PUBCHEM_SHAPE_FINGERPRINT>
10050765 1 18197774603596983828
10119406 146 18409453553102486695
10369192 42 13190345643187565648
10622 236 17127595824673957574
10928967 22 18054810617776299758
11578080 2 16770691039341428937
11796584 16 18186521012814809016
11991303 11 18260831510146203773
12643181 29 18409445865527212304
12655364 131 16915396394062087198
13008946 113 17245827040279763725
13150687 139 18412538787641749941
14400156 350 17905594516323953389
14856354 85 16009040457930943273
14950920 106 16343428431338276978
15064986 266 18187654668588627540
15131766 46 15432314873579984549
15361156 5 18335708282062585228
15849732 13 17749113262108140837
15927050 60 18333726893369004067
16628084 112 17899972729759147506
18393751 57 9655284982081104452
19301676 85 18268995276313456598
19301679 30 18049166871577427147
19315092 285 16771261676843652602
21133665 82 18264774255626861014
23559900 14 18341043091016533448
249057 3 18335139778368563252
314194 84 18197786716237357234
335352 9 18413387614096358308
3383291 50 18272934882198887511
3418910 222 16528335130715639466
4015057 19 18201143464343368797
4058900 60 17970066630886121217
4073 2 18261673787756341144
44062 13 18411418444726275300
4408954 64 15651319993868949521
508706 21 18041558148049391522
513202 73 18191596452677736467
563151 40 17095249115769712073
58260988 521 17895774919683508145
59755656 520 17967248694099546673
6371380 46 18334575732918744329
6431902 208 18337675325829570214
6669772 16 18338799988442999175
6698420 124 18272934895479967961
70251023 43 17766268061604722867

> <PUBCHEM_SHAPE_MULTIPOLES>
637.5
17.88
5.25
1.94
18.76
2.41
-1.23
-4.64
5.1
-5.92
0.05
-2.56
3.34
1.17

> <PUBCHEM_SHAPE_SELFOVERLAP>
1374.974

> <PUBCHEM_SHAPE_VOLUME>
354.6

> <PUBCHEM_COORDINATE_TYPE>
2
5
10

$$$$
