9821941
  -OEChem-01082001193D

 57 61  0     1  0  0  0  0  0999 V2000
    4.6324   -1.4096    0.2688 F   0  0  0  0  0  0  0  0  0  0  0  0
    1.3933    3.9583    0.0547 O   0  0  0  0  0  0  0  0  0  0  0  0
   -2.2149   -1.4279   -0.4046 N   0  0  1  0  0  0  0  0  0  0  0  0
   -2.0556    1.8101    0.2112 N   0  0  1  0  0  0  0  0  0  0  0  0
   -0.0305   -3.1020   -1.1220 N   0  0  1  0  0  0  0  0  0  0  0  0
   -3.2417   -0.7797    0.4122 C   0  0  1  0  0  0  0  0  0  0  0  0
   -2.4987   -0.1509    1.6438 C   0  0  2  0  0  0  0  0  0  0  0  0
   -3.9860    0.2864   -0.3856 C   0  0  0  0  0  0  0  0  0  0  0  0
   -2.3941    1.3816    1.5694 C   0  0  0  0  0  0  0  0  0  0  0  0
   -1.1676   -0.8475    1.5823 C   0  0  0  0  0  0  0  0  0  0  0  0
   -1.0832   -1.5773    0.3989 C   0  0  0  0  0  0  0  0  0  0  0  0
   -3.1017    1.4835   -0.7673 C   0  0  0  0  0  0  0  0  0  0  0  0
   -2.4300   -2.4705   -1.3817 C   0  0  0  0  0  0  0  0  0  0  0  0
    0.0105   -2.3735    0.0615 C   0  0  0  0  0  0  0  0  0  0  0  0
   -1.0981   -2.7826   -2.0843 C   0  0  0  0  0  0  0  0  0  0  0  0
   -1.7015    3.2244    0.1572 C   0  0  0  0  0  0  0  0  0  0  0  0
   -0.1303   -0.8670    2.4914 C   0  0  0  0  0  0  0  0  0  0  0  0
    1.0572   -2.3917    0.9928 C   0  0  0  0  0  0  0  0  0  0  0  0
    0.9899   -1.6441    2.1870 C   0  0  0  0  0  0  0  0  0  0  0  0
   -1.1624    3.5822   -1.2293 C   0  0  0  0  0  0  0  0  0  0  0  0
    1.1258   -3.8489   -1.5849 C   0  0  0  0  0  0  0  0  0  0  0  0
    0.0866    2.7744   -1.5931 C   0  0  0  0  0  0  0  0  0  0  0  0
    1.2180    2.9246   -0.5860 C   0  0  0  0  0  0  0  0  0  0  0  0
    2.1289    1.7669   -0.3574 C   0  0  0  0  0  0  0  0  0  0  0  0
    2.3596    0.8925   -1.3958 C   0  0  0  0  0  0  0  0  0  0  0  0
    2.7071    1.6153    0.8832 C   0  0  0  0  0  0  0  0  0  0  0  0
    3.2130   -0.1901   -1.1824 C   0  0  0  0  0  0  0  0  0  0  0  0
    3.5606    0.5328    1.0964 C   0  0  0  0  0  0  0  0  0  0  0  0
    3.8134   -0.3699    0.0637 C   0  0  0  0  0  0  0  0  0  0  0  0
   -3.9486   -1.5414    0.7679 H   0  0  0  0  0  0  0  0  0  0  0  0
   -3.0177   -0.4372    2.5668 H   0  0  0  0  0  0  0  0  0  0  0  0
   -4.8223    0.6502    0.2262 H   0  0  0  0  0  0  0  0  0  0  0  0
   -4.4282   -0.1426   -1.2924 H   0  0  0  0  0  0  0  0  0  0  0  0
   -3.3431    1.8357    1.8840 H   0  0  0  0  0  0  0  0  0  0  0  0
   -1.6305    1.7216    2.2805 H   0  0  0  0  0  0  0  0  0  0  0  0
   -2.6220    1.2547   -1.7265 H   0  0  0  0  0  0  0  0  0  0  0  0
   -3.7758    2.3330   -0.9403 H   0  0  0  0  0  0  0  0  0  0  0  0
   -3.1725   -2.1529   -2.1212 H   0  0  0  0  0  0  0  0  0  0  0  0
   -2.8146   -3.3722   -0.8886 H   0  0  0  0  0  0  0  0  0  0  0  0
   -1.2506   -3.6220   -2.7724 H   0  0  0  0  0  0  0  0  0  0  0  0
   -0.7831   -1.9192   -2.6847 H   0  0  0  0  0  0  0  0  0  0  0  0
   -2.5715    3.8550    0.3826 H   0  0  0  0  0  0  0  0  0  0  0  0
   -0.9507    3.4575    0.9201 H   0  0  0  0  0  0  0  0  0  0  0  0
   -0.1798   -0.3070    3.4183 H   0  0  0  0  0  0  0  0  0  0  0  0
    1.9493   -2.9886    0.8200 H   0  0  0  0  0  0  0  0  0  0  0  0
    1.8206   -1.6842    2.8870 H   0  0  0  0  0  0  0  0  0  0  0  0
   -1.9211    3.4650   -2.0110 H   0  0  0  0  0  0  0  0  0  0  0  0
   -0.9047    4.6493   -1.2240 H   0  0  0  0  0  0  0  0  0  0  0  0
    1.4452   -4.5843   -0.8388 H   0  0  0  0  0  0  0  0  0  0  0  0
    1.9605   -3.1763   -1.8078 H   0  0  0  0  0  0  0  0  0  0  0  0
    0.8955   -4.4057   -2.4997 H   0  0  0  0  0  0  0  0  0  0  0  0
    0.4642    3.1175   -2.5633 H   0  0  0  0  0  0  0  0  0  0  0  0
   -0.1858    1.7194   -1.6988 H   0  0  0  0  0  0  0  0  0  0  0  0
    1.9213    1.0196   -2.3802 H   0  0  0  0  0  0  0  0  0  0  0  0
    2.5140    2.3060    1.6982 H   0  0  0  0  0  0  0  0  0  0  0  0
    3.4133   -0.8911   -1.9872 H   0  0  0  0  0  0  0  0  0  0  0  0
    4.0264    0.3909    2.0671 H   0  0  0  0  0  0  0  0  0  0  0  0
  1 29  1  0  0  0  0
  2 23  2  0  0  0  0
  3  6  1  0  0  0  0
  3 11  1  0  0  0  0
  3 13  1  0  0  0  0
  4  9  1  0  0  0  0
  4 12  1  0  0  0  0
  4 16  1  0  0  0  0
  5 14  1  0  0  0  0
  5 15  1  0  0  0  0
  5 21  1  0  0  0  0
  6  7  1  0  0  0  0
  6  8  1  0  0  0  0
  6 30  1  0  0  0  0
  7  9  1  0  0  0  0
  7 10  1  0  0  0  0
  7 31  1  0  0  0  0
  8 12  1  0  0  0  0
  8 32  1  0  0  0  0
  8 33  1  0  0  0  0
  9 34  1  0  0  0  0
  9 35  1  0  0  0  0
 10 11  2  0  0  0  0
 10 17  1  0  0  0  0
 11 14  1  0  0  0  0
 12 36  1  0  0  0  0
 12 37  1  0  0  0  0
 13 15  1  0  0  0  0
 13 38  1  0  0  0  0
 13 39  1  0  0  0  0
 14 18  2  0  0  0  0
 15 40  1  0  0  0  0
 15 41  1  0  0  0  0
 16 20  1  0  0  0  0
 16 42  1  0  0  0  0
 16 43  1  0  0  0  0
 17 19  2  0  0  0  0
 17 44  1  0  0  0  0
 18 19  1  0  0  0  0
 18 45  1  0  0  0  0
 19 46  1  0  0  0  0
 20 22  1  0  0  0  0
 20 47  1  0  0  0  0
 20 48  1  0  0  0  0
 21 49  1  0  0  0  0
 21 50  1  0  0  0  0
 21 51  1  0  0  0  0
 22 23  1  0  0  0  0
 22 52  1  0  0  0  0
 22 53  1  0  0  0  0
 23 24  1  0  0  0  0
 24 25  2  0  0  0  0
 24 26  1  0  0  0  0
 25 27  1  0  0  0  0
 25 54  1  0  0  0  0
 26 28  2  0  0  0  0
 26 55  1  0  0  0  0
 27 29  2  0  0  0  0
 27 56  1  0  0  0  0
 28 29  1  0  0  0  0
 28 57  1  0  0  0  0
M  END
> <PUBCHEM_COMPOUND_CID>
9821941

> <PUBCHEM_CONFORMER_RMSD>
0.8

> <PUBCHEM_CONFORMER_DIVERSEORDER>
2
156
128
407
113
211
45
336
374
413
319
34
415
333
194
56
299
50
73
280
315
253
174
3
190
138
36
241
185
122
431
11
236
52
134
9
281
149
51
170
363
291
303
271
165
316
192
27
108
349
311
240
306
13
244
171
275
89
338
141
206
205
44
200
381
83
321
117
386
8
276
352
256
401
231
346
414
237
26
216
226
199
238
131
191
339
123
115
16
411
379
104
160
224
260
15
84
102
145
351
1
361
345
215
417
294
279
48
37
343
252
364
147
324
95
53
392
153
76
225
372
220
43
93
21
391
152
264
155
114
91
287
79
298
285
116
261
295
181
59
17
14
375
126
262
312
25
327
196
23
219
101
358
10
157
112
5
179
223
58
408
334
81
29
60
284
235
376
293
119
412
6
325
168
416
213
328
297
97
268
257
105
212
369
19
175
188
63
221
182
46
55
217
66
30
353
307
20
210
57
70
383
385
135
72
286
367
246
24
300
395
270
68
323
22
371
247
82
208
40
107
329
39
133
269
159
317
121
310
382
74
78
228
180
309
167
87
362
203
370
399
359
189
429
251
341
103
378
403
150
393
204
340
12
65
75
35
80
88
390
136
144
332
365
290
71
137
335
239
161
360
111
410
176
4
106
423
140
129
198
389
427
32
166
314
162
373
424
125
277
305
7
69
426
230
130
64
273
248
409
61
186
342
331
100
172
193
90
243
356
274
28
380
143
330
49
366
109
110
96
120
357
124
249
164
178
419
318
255
233
320
296
92
31
42
47
266
322
177
41
77
67
313
278
259
394
400
207
18
283
258
245
418
288
154
99
348
62
301
396
254
118
292
209
421
169
308
344
127
384
282
151
425
402
94
355
195
54
272
202
214
337
33
267
173
398
265
163
146
85
404
377
148
183
387
227
242
420
98
368
197
187
397
232
222
406
132
326
184
430
347
158
218
86
354
229
250
428
350
405
289
38
422
139
388
263
304
302
234
142
201

> <PUBCHEM_MMFF94_PARTIAL_CHARGES>
34
1 -0.19
10 -0.14
11 0.1
12 0.27
13 0.37
14 0.1
15 0.37
16 0.27
17 -0.15
18 -0.15
19 -0.15
2 -0.57
21 0.37
22 0.06
23 0.42
24 0.09
25 -0.15
26 -0.15
27 -0.15
28 -0.15
29 0.19
3 -0.84
4 -0.81
44 0.15
45 0.15
46 0.15
5 -0.84
54 0.15
55 0.15
56 0.15
57 0.15
6 0.37
7 0.14
9 0.27

> <PUBCHEM_EFFECTIVE_ROTOR_COUNT>
6.4

> <PUBCHEM_PHARMACOPHORE_FEATURES>
9
1 2 acceptor
1 3 cation
1 4 cation
1 5 cation
5 3 6 7 10 11 rings
6 10 11 14 17 18 19 rings
6 24 25 26 27 28 29 rings
6 3 5 11 13 14 15 rings
6 4 6 7 8 9 12 rings

> <PUBCHEM_HEAVY_ATOM_COUNT>
29

> <PUBCHEM_ATOM_DEF_STEREO_COUNT>
0

> <PUBCHEM_ATOM_UDEF_STEREO_COUNT>
2

> <PUBCHEM_BOND_DEF_STEREO_COUNT>
0

> <PUBCHEM_BOND_UDEF_STEREO_COUNT>
0

> <PUBCHEM_ISOTOPIC_ATOM_COUNT>
0

> <PUBCHEM_COMPONENT_COUNT>
1

> <PUBCHEM_CACTVS_TAUTO_COUNT>
2

> <PUBCHEM_CONFORMER_ID>
0095DEF500000002

> <PUBCHEM_MMFF94_ENERGY>
90.8016

> <PUBCHEM_FEATURE_SELFOVERLAP>
46.211

> <PUBCHEM_SHAPE_FINGERPRINT>
104564 63 18114742604029659600
11221954 11 17757837727770407105
11370993 70 17846494829299680366
12035759 4 18195504095554110351
12156800 1 16241724657376672440
12422481 6 18194417597292087321
12539773 59 17192671549717815995
12553582 1 17901957661806756732
13122387 1 16390144064107902012
13140716 1 18335148643212691233
17492 54 18117254992457574333
19930381 70 18340496659237820231
20764821 26 18196955283140308422
20905425 154 17972033630747904456
23419403 2 16392753359761168632
238 59 17613968842968226405
35225 105 18116165534899540223
6287921 2 17624408689200128149
9862522 239 18193543485595341114

> <PUBCHEM_SHAPE_MULTIPOLES>
568.72
5.81
5.01
2.07
2.46
1.31
0.42
0.5
0.1
-0.07
-2.46
-0.22
-1.03
-0.43

> <PUBCHEM_SHAPE_SELFOVERLAP>
1243.249

> <PUBCHEM_SHAPE_VOLUME>
310.8

> <PUBCHEM_COORDINATE_TYPE>
2
5
10

$$$$
