25151352
  -OEChem-01082001253D

 44 47  0     0  0  0  0  0  0999 V2000
    6.1692    3.5695   -1.5197 Cl  0  0  0  0  0  0  0  0  0  0  0  0
   -8.6572   -0.4321    0.1717 F   0  0  0  0  0  0  0  0  0  0  0  0
   -7.9886    0.5076    2.0085 F   0  0  0  0  0  0  0  0  0  0  0  0
   -8.4136    1.7269    0.2588 F   0  0  0  0  0  0  0  0  0  0  0  0
    5.8577   -1.0231    1.9592 N   0  0  0  0  0  0  0  0  0  0  0  0
   -1.6926   -0.8424   -0.2794 N   0  0  0  0  0  0  0  0  0  0  0  0
    6.7538    1.1900    1.6385 N   0  0  0  0  0  0  0  0  0  0  0  0
    0.2599   -2.0835    0.2916 N   0  0  0  0  0  0  0  0  0  0  0  0
   -5.5624    1.3703    0.6409 N   0  0  0  0  0  0  0  0  0  0  0  0
    4.6980   -1.2794    0.0776 C   0  0  0  0  0  0  0  0  0  0  0  0
    3.8382   -1.8648   -0.9706 C   0  0  0  0  0  0  0  0  0  0  0  0
    5.3067    0.0032    0.0539 C   0  0  0  0  0  0  0  0  0  0  0  0
    2.3544   -1.5736   -0.8030 C   0  0  0  0  0  0  0  0  0  0  0  0
    6.0221    0.1319    1.2408 C   0  0  0  0  0  0  0  0  0  0  0  0
    5.0547   -1.8879    1.2617 C   0  0  0  0  0  0  0  0  0  0  0  0
    5.3391    1.0852   -0.8406 C   0  0  0  0  0  0  0  0  0  0  0  0
    1.7323   -0.5752   -1.5445 C   0  0  0  0  0  0  0  0  0  0  0  0
    1.5808   -2.2927    0.0938 C   0  0  0  0  0  0  0  0  0  0  0  0
   -0.3101   -1.1050   -0.4470 C   0  0  0  0  0  0  0  0  0  0  0  0
   -2.3785    0.1700   -1.0141 C   0  0  0  0  0  0  0  0  0  0  0  0
    0.3749   -0.3302   -1.3691 C   0  0  0  0  0  0  0  0  0  0  0  0
   -3.8215    0.2379   -0.5968 C   0  0  0  0  0  0  0  0  0  0  0  0
    6.0824    2.2071   -0.4783 C   0  0  0  0  0  0  0  0  0  0  0  0
    6.7495    2.2014    0.7393 C   0  0  0  0  0  0  0  0  0  0  0  0
   -4.7378   -0.7147   -1.0286 C   0  0  0  0  0  0  0  0  0  0  0  0
   -4.2801    1.2513    0.2293 C   0  0  0  0  0  0  0  0  0  0  0  0
   -6.0659   -0.6260   -0.6265 C   0  0  0  0  0  0  0  0  0  0  0  0
   -6.4241    0.4261    0.2011 C   0  0  0  0  0  0  0  0  0  0  0  0
   -7.8414    0.5522    0.6517 C   0  0  0  0  0  0  0  0  0  0  0  0
    3.9718   -2.9550   -0.9995 H   0  0  0  0  0  0  0  0  0  0  0  0
    4.1634   -1.5191   -1.9608 H   0  0  0  0  0  0  0  0  0  0  0  0
    4.8103   -2.8581    1.6717 H   0  0  0  0  0  0  0  0  0  0  0  0
    6.2662   -1.2082    2.8647 H   0  0  0  0  0  0  0  0  0  0  0  0
    4.8019    1.0453   -1.7833 H   0  0  0  0  0  0  0  0  0  0  0  0
    2.2944    0.0175   -2.2608 H   0  0  0  0  0  0  0  0  0  0  0  0
    2.0083   -3.0854    0.6999 H   0  0  0  0  0  0  0  0  0  0  0  0
   -2.3462   -0.0297   -2.0930 H   0  0  0  0  0  0  0  0  0  0  0  0
   -1.9207    1.1539   -0.8500 H   0  0  0  0  0  0  0  0  0  0  0  0
   -0.0776    0.4536   -1.9649 H   0  0  0  0  0  0  0  0  0  0  0  0
   -2.1783   -1.4174    0.3998 H   0  0  0  0  0  0  0  0  0  0  0  0
    7.3375    3.0623    1.0497 H   0  0  0  0  0  0  0  0  0  0  0  0
   -4.4277   -1.5290   -1.6777 H   0  0  0  0  0  0  0  0  0  0  0  0
   -3.6142    2.0236    0.6016 H   0  0  0  0  0  0  0  0  0  0  0  0
   -6.7823   -1.3679   -0.9621 H   0  0  0  0  0  0  0  0  0  0  0  0
  1 23  1  0  0  0  0
  2 29  1  0  0  0  0
  3 29  1  0  0  0  0
  4 29  1  0  0  0  0
  5 14  1  0  0  0  0
  5 15  1  0  0  0  0
  5 33  1  0  0  0  0
  6 19  1  0  0  0  0
  6 20  1  0  0  0  0
  6 40  1  0  0  0  0
  7 14  1  0  0  0  0
  7 24  2  0  0  0  0
  8 18  1  0  0  0  0
  8 19  2  0  0  0  0
  9 26  1  0  0  0  0
  9 28  2  0  0  0  0
 10 11  1  0  0  0  0
 10 12  1  0  0  0  0
 10 15  2  0  0  0  0
 11 13  1  0  0  0  0
 11 30  1  0  0  0  0
 11 31  1  0  0  0  0
 12 14  2  0  0  0  0
 12 16  1  0  0  0  0
 13 17  1  0  0  0  0
 13 18  2  0  0  0  0
 15 32  1  0  0  0  0
 16 23  2  0  0  0  0
 16 34  1  0  0  0  0
 17 21  2  0  0  0  0
 17 35  1  0  0  0  0
 18 36  1  0  0  0  0
 19 21  1  0  0  0  0
 20 22  1  0  0  0  0
 20 37  1  0  0  0  0
 20 38  1  0  0  0  0
 21 39  1  0  0  0  0
 22 25  1  0  0  0  0
 22 26  2  0  0  0  0
 23 24  1  0  0  0  0
 24 41  1  0  0  0  0
 25 27  2  0  0  0  0
 25 42  1  0  0  0  0
 26 43  1  0  0  0  0
 27 28  1  0  0  0  0
 27 44  1  0  0  0  0
 28 29  1  0  0  0  0
M  END
> <PUBCHEM_COMPOUND_CID>
25151352

> <PUBCHEM_CONFORMER_RMSD>
1

> <PUBCHEM_CONFORMER_DIVERSEORDER>
1
146
4
113
103
104
225
79
200
116
240
232
170
128
189
36
246
238
84
78
123
26
157
152
39
154
99
216
112
101
186
28
138
166
82
229
160
133
215
31
256
241
248
253
20
180
80
46
145
182
227
140
139
218
121
141
53
217
199
88
10
35
190
196
124
105
167
93
231
237
135
118
185
208
98
177
243
155
11
250
76
58
201
181
173
230
95
249
150
235
251
75
198
242
163
62
221
247
226
42
197
228
57
122
210
174
27
86
151
147
89
136
142
66
24
33
202
85
6
25
244
206
179
223
119
64
91
61
137
192
59
107
156
23
224
211
45
67
90
74
110
129
49
92
41
77
188
176
102
178
255
22
233
44
120
30
144
94
175
149
43
127
7
184
171
161
50
213
236
168
115
203
51
126
158
106
193
169
55
132
97
52
68
165
239
63
204
148
54
194
212
38
195
117
37
60
15
245
81
19
214
143
111
220
34
108
29
219
73
71
83
252
254
114
14
164
222
109
12
56
205
162
207
16
13
153
40
17
131
65
183
134
125
9
2
191
87
32
187
130
21
47
234
70
72
48
172
3
8
96
69
100
5
159
209
18

> <PUBCHEM_MMFF94_PARTIAL_CHARGES>
39
1 -0.18
10 -0.18
11 0.32
13 -0.14
14 0.11
15 -0.3
16 -0.15
17 -0.15
18 0.16
19 0.41
2 -0.34
20 0.51
21 -0.15
22 -0.14
23 0.18
24 0.16
25 -0.15
26 0.16
27 -0.15
28 0.17
29 1.16
3 -0.34
32 0.15
33 0.27
34 0.15
35 0.15
36 0.15
39 0.15
4 -0.34
40 0.4
41 0.15
42 0.15
43 0.15
44 0.15
5 0.03
6 -0.87
7 -0.57
8 -0.62
9 -0.62

> <PUBCHEM_EFFECTIVE_ROTOR_COUNT>
6

> <PUBCHEM_PHARMACOPHORE_FEATURES>
10
1 5 cation
1 5 donor
1 6 donor
1 7 acceptor
1 9 acceptor
3 6 8 19 cation
5 5 10 12 14 15 rings
6 7 12 14 16 23 24 rings
6 8 13 17 18 19 21 rings
6 9 22 25 26 27 28 rings

> <PUBCHEM_HEAVY_ATOM_COUNT>
29

> <PUBCHEM_ATOM_DEF_STEREO_COUNT>
0

> <PUBCHEM_ATOM_UDEF_STEREO_COUNT>
0

> <PUBCHEM_BOND_DEF_STEREO_COUNT>
0

> <PUBCHEM_BOND_UDEF_STEREO_COUNT>
0

> <PUBCHEM_ISOTOPIC_ATOM_COUNT>
0

> <PUBCHEM_COMPONENT_COUNT>
1

> <PUBCHEM_CACTVS_TAUTO_COUNT>
4

> <PUBCHEM_CONFORMER_ID>
017FC77800000001

> <PUBCHEM_MMFF94_ENERGY>
69.4483

> <PUBCHEM_FEATURE_SELFOVERLAP>
50.859

> <PUBCHEM_SHAPE_FINGERPRINT>
10 15 18040719173010439991
10066227 49 7997972375603714137
10533779 47 18115018599055999466
10693767 8 10231759963906286372
11135609 127 11023237950838188186
11408170 132 13038919780882124987
11578821 258 18273213076470437825
11719270 70 14273454760415543427
125118 31 18272371923813949633
12539765 74 17846787286502811487
12592606 108 11314303936642223888
13533116 47 17749666286766719738
13782708 43 12612757925704324551
13914758 101 11314307235783905271
14068700 675 11602814692375034726
14216079 64 8358261436271409033
14251757 52 17346880052477987405
14251764 18 17918272048536878079
14251764 75 18044659943893734876
14400156 188 17823691959733079538
14537116 161 16487538052841131240
14565420 104 18334574620823122378
14849402 71 18339644550648690209
14919807 6 12247136160663707395
15183329 4 8070026692211862415
15188451 53 13984658140265776654
15352257 5 8358259250249230129
15419008 91 16950831558144375197
15461852 350 14836111154051612909
15475509 35 12973879339020020972
155225 6 18191310592682237772
15554971 5 17632570510358742695
1577012 14 18273209815871601191
15840311 113 18411984637158459390
16994733 274 18060420192756331627
1754908 1 17603594028217494849
18393751 57 18259703406541563455
2026 5 11819261244267995257
20567600 234 18334574646565772654
21130935 74 18333733490328364603
21344244 78 15213017163872662510
21360442 33 11240008832690585204
21521239 73 10015864288623488100
21521721 280 18409732863304845203
21641784 216 15554455067512631730
21792934 111 17385721366709441341
21987483 16 17749389316741178675
22224240 67 18259703389715122203
23523766 6 15336336042764736420
23576562 1 14404315388191941457
24771293 8 18337386145042916020
25269216 80 15768916017264268989
3383291 50 14996286916383956337
3418910 222 17704081698900114305
34797466 226 17846786178211032902
3711267 37 17346323704306467889
397830 11 17895202150432521778
4073 2 18343865532917385415
4093350 32 17632584833678646798
444735 82 18411422782622710365
5104073 3 17678732337487101095
5109719 28 18410022043336625985
5372103 7 15553303995856950280
5758199 1 18413389839173961559
5951187 136 17560235964266764256
59682541 35 18260833717996608099
60111433 81 17415828340125856904
6438161 24 8862947156573144068
68570916 9 18341323483075981775
9689198 14 16271927129653001837

> <PUBCHEM_SHAPE_MULTIPOLES>
551.95
27.09
2.65
1.5
41.1
1.3
-0.29
15.36
-10.15
-5.89
0.41
-1.27
0.11
-2.1

> <PUBCHEM_SHAPE_SELFOVERLAP>
1209.403

> <PUBCHEM_SHAPE_VOLUME>
302.8

> <PUBCHEM_COORDINATE_TYPE>
2
5
10

$$$$
