10130337
  -OEChem-01082001573D

 28 28  0     1  0  0  0  0  0999 V2000
    2.1589   -0.0881   -0.2141 O   0  0  0  0  0  0  0  0  0  0  0  0
    3.0035    1.5502    1.1651 O   0  0  0  0  0  0  0  0  0  0  0  0
    1.4849   -2.8284   -0.0871 N   0  0  0  0  0  0  0  0  0  0  0  0
    3.6502    1.3931   -1.0358 N   0  0  0  0  0  0  0  0  0  0  0  0
    0.5538   -1.8024    0.3928 C   0  0  2  0  0  0  0  0  0  0  0  0
   -0.4299   -1.4708   -0.7491 C   0  0  0  0  0  0  0  0  0  0  0  0
   -1.4884   -0.4550   -0.3929 C   0  0  0  0  0  0  0  0  0  0  0  0
    1.3727   -0.5922    0.8575 C   0  0  0  0  0  0  0  0  0  0  0  0
   -2.6936   -0.8874    0.1377 C   0  0  0  0  0  0  0  0  0  0  0  0
   -1.2358    0.8916   -0.6022 C   0  0  0  0  0  0  0  0  0  0  0  0
   -3.6715    0.0510    0.4671 C   0  0  0  0  0  0  0  0  0  0  0  0
   -2.2137    1.8300   -0.2726 C   0  0  0  0  0  0  0  0  0  0  0  0
   -3.4317    1.4096    0.2622 C   0  0  0  0  0  0  0  0  0  0  0  0
    2.9406    0.9987    0.0714 C   0  0  0  0  0  0  0  0  0  0  0  0
    0.0006   -2.2022    1.2507 H   0  0  0  0  0  0  0  0  0  0  0  0
    0.1148   -1.1172   -1.6361 H   0  0  0  0  0  0  0  0  0  0  0  0
   -0.9325   -2.3915   -1.0784 H   0  0  0  0  0  0  0  0  0  0  0  0
    0.7211    0.1951    1.2516 H   0  0  0  0  0  0  0  0  0  0  0  0
    2.0424   -0.9014    1.6711 H   0  0  0  0  0  0  0  0  0  0  0  0
    2.0064   -2.4740   -0.8883 H   0  0  0  0  0  0  0  0  0  0  0  0
    0.9626   -3.6363   -0.4240 H   0  0  0  0  0  0  0  0  0  0  0  0
   -2.8887   -1.9430    0.3035 H   0  0  0  0  0  0  0  0  0  0  0  0
   -0.2944    1.2312   -1.0239 H   0  0  0  0  0  0  0  0  0  0  0  0
   -4.6196   -0.2761    0.8840 H   0  0  0  0  0  0  0  0  0  0  0  0
   -2.0276    2.8878   -0.4336 H   0  0  0  0  0  0  0  0  0  0  0  0
   -4.1932    2.1402    0.5186 H   0  0  0  0  0  0  0  0  0  0  0  0
    3.5637    0.9041   -1.9203 H   0  0  0  0  0  0  0  0  0  0  0  0
    4.2823    2.1859   -1.0037 H   0  0  0  0  0  0  0  0  0  0  0  0
  1  8  1  0  0  0  0
  1 14  1  0  0  0  0
  2 14  2  0  0  0  0
  3  5  1  0  0  0  0
  3 20  1  0  0  0  0
  3 21  1  0  0  0  0
  4 14  1  0  0  0  0
  4 27  1  0  0  0  0
  4 28  1  0  0  0  0
  5  6  1  0  0  0  0
  5  8  1  0  0  0  0
  5 15  1  0  0  0  0
  6  7  1  0  0  0  0
  6 16  1  0  0  0  0
  6 17  1  0  0  0  0
  7  9  2  0  0  0  0
  7 10  1  0  0  0  0
  8 18  1  0  0  0  0
  8 19  1  0  0  0  0
  9 11  1  0  0  0  0
  9 22  1  0  0  0  0
 10 12  2  0  0  0  0
 10 23  1  0  0  0  0
 11 13  2  0  0  0  0
 11 24  1  0  0  0  0
 12 13  1  0  0  0  0
 12 25  1  0  0  0  0
 13 26  1  0  0  0  0
M  END
> <PUBCHEM_COMPOUND_CID>
10130337

> <PUBCHEM_CONFORMER_RMSD>
0.6

> <PUBCHEM_CONFORMER_DIVERSEORDER>
1
27
42
62
50
67
7
11
37
33
4
35
66
63
53
51
64
24
44
65
58
31
57
28
25
40
13
6
38
55
21
68
46
10
18
12
29
56
23
19
59
20
48
45
15
32
8
60
22
30
34
54
17
43
26
5
3
36
16
61
39
9
14
49
2
52
47
41

> <PUBCHEM_MMFF94_PARTIAL_CHARGES>
23
1 -0.43
10 -0.15
11 -0.15
12 -0.15
13 -0.15
14 0.78
2 -0.57
20 0.36
21 0.36
22 0.15
23 0.15
24 0.15
25 0.15
26 0.15
27 0.37
28 0.37
3 -0.99
4 -0.8
5 0.27
6 0.14
7 -0.14
8 0.28
9 -0.15

> <PUBCHEM_EFFECTIVE_ROTOR_COUNT>
5

> <PUBCHEM_PHARMACOPHORE_FEATURES>
5
1 2 acceptor
1 3 cation
1 3 donor
1 4 donor
6 7 9 10 11 12 13 rings

> <PUBCHEM_HEAVY_ATOM_COUNT>
14

> <PUBCHEM_ATOM_DEF_STEREO_COUNT>
1

> <PUBCHEM_ATOM_UDEF_STEREO_COUNT>
0

> <PUBCHEM_BOND_DEF_STEREO_COUNT>
0

> <PUBCHEM_BOND_UDEF_STEREO_COUNT>
0

> <PUBCHEM_ISOTOPIC_ATOM_COUNT>
0

> <PUBCHEM_COMPONENT_COUNT>
1

> <PUBCHEM_CACTVS_TAUTO_COUNT>
2

> <PUBCHEM_CONFORMER_ID>
009A93A100000001

> <PUBCHEM_MMFF94_ENERGY>
24.4644

> <PUBCHEM_FEATURE_SELFOVERLAP>
25.371

> <PUBCHEM_SHAPE_FINGERPRINT>
10465860 71 9799416658498888304
10498660 4 18411132563102978629
10608611 8 18264767649814178829
10980938 120 18410854334978690137
11132069 177 18334291002562187449
11715629 250 18201711903280194984
12346645 44 18409730681218358954
12696612 119 18188205382027209302
13380535 21 18411986832087298043
13618510 140 18410571756084874389
13764800 53 18188216523156609650
13897977 13 18335424573497021933
14123255 52 18412821412831250200
14648413 74 18121779422307084251
15775835 57 18412266146500280000
17834072 14 8286203807805229414
17841504 4 17974565789005364427
18186145 218 17775291598788230224
19973954 147 18194397780275845027
20645477 56 18196655310008796648
20671657 1 18271803458816435114
21501502 16 18341044104485961583
21524375 3 18410287038676932602
23388829 49 18337950220625791703
2748010 2 18189614934865233951
305870 269 18337099112494561794
44154327 71 18260835911812617533
449060 62 18411142407310081877
7364860 26 18269272357342918006
81228 2 17619618524891405578

> <PUBCHEM_SHAPE_MULTIPOLES>
266.41
6.25
2.38
0.91
0.6
0.81
-0.03
-3.49
-0.49
1.02
0.08
0.37
-0.13
-0.04

> <PUBCHEM_SHAPE_SELFOVERLAP>
541.159

> <PUBCHEM_SHAPE_VOLUME>
154.2

> <PUBCHEM_COORDINATE_TYPE>
2
5
10

$$$$
