11518241
  -OEChem-01082001093D

 67 70  0     0  0  0  0  0  0999 V2000
   -0.7711   -3.2388    0.3662 O   0  0  0  0  0  0  0  0  0  0  0  0
   -3.0525   -4.8618    0.3111 O   0  0  0  0  0  0  0  0  0  0  0  0
    7.3717    3.2205   -0.6616 O   0  0  0  0  0  0  0  0  0  0  0  0
    8.6531    1.6247    0.3272 O   0  0  0  0  0  0  0  0  0  0  0  0
   -4.5780    1.6061    0.8311 N   0  0  0  0  0  0  0  0  0  0  0  0
   -5.8764    0.9423    0.9177 C   0  0  0  0  0  0  0  0  0  0  0  0
   -4.7099    3.0595    0.8991 C   0  0  0  0  0  0  0  0  0  0  0  0
   -6.8269    2.0561    1.3507 C   0  0  0  0  0  0  0  0  0  0  0  0
   -6.2089    3.2975    0.7313 C   0  0  0  0  0  0  0  0  0  0  0  0
   -3.5891    1.0359   -1.8053 C   0  0  0  0  0  0  0  0  0  0  0  0
   -3.3767    0.9432    0.7000 C   0  0  0  0  0  0  0  0  0  0  0  0
   -2.8383    0.6350   -0.5248 C   0  0  0  0  0  0  0  0  0  0  0  0
   -1.6421   -0.0253   -0.6747 C   0  0  0  0  0  0  0  0  0  0  0  0
   -2.6769    0.5684    1.8470 C   0  0  0  0  0  0  0  0  0  0  0  0
   -3.1395    2.4439   -2.2523 C   0  0  0  0  0  0  0  0  0  0  0  0
   -5.1254    1.0781   -1.6420 C   0  0  0  0  0  0  0  0  0  0  0  0
   -3.2779    0.0232   -2.9286 C   0  0  0  0  0  0  0  0  0  0  0  0
   -0.9423   -0.4000    0.4723 C   0  0  0  0  0  0  0  0  0  0  0  0
   -1.4595   -0.1032    1.7331 C   0  0  0  0  0  0  0  0  0  0  0  0
    0.3200   -1.0969    0.3545 C   0  0  0  0  0  0  0  0  0  0  0  0
    0.3678   -2.4914    0.3045 C   0  0  0  0  0  0  0  0  0  0  0  0
    1.5033   -0.3588    0.2889 C   0  0  0  0  0  0  0  0  0  0  0  0
    2.7299   -1.0129    0.1742 C   0  0  0  0  0  0  0  0  0  0  0  0
    1.5945   -3.1453    0.1897 C   0  0  0  0  0  0  0  0  0  0  0  0
    2.7757   -2.4061    0.1245 C   0  0  0  0  0  0  0  0  0  0  0  0
    3.9557   -0.2469    0.1082 C   0  0  0  0  0  0  0  0  0  0  0  0
   -1.0484   -4.0878   -0.7450 C   0  0  0  0  0  0  0  0  0  0  0  0
    5.1418   -0.7844    0.6078 C   0  0  0  0  0  0  0  0  0  0  0  0
    3.9509    1.0294   -0.4547 C   0  0  0  0  0  0  0  0  0  0  0  0
   -2.5497   -4.2583   -0.8748 C   0  0  0  0  0  0  0  0  0  0  0  0
    6.3233   -0.0456    0.5447 C   0  0  0  0  0  0  0  0  0  0  0  0
    5.1326    1.7681   -0.5179 C   0  0  0  0  0  0  0  0  0  0  0  0
    6.3187    1.2306   -0.0183 C   0  0  0  0  0  0  0  0  0  0  0  0
    7.5504    2.0010   -0.0836 C   0  0  0  0  0  0  0  0  0  0  0  0
   -6.3345    0.3890    0.1097 H   0  0  0  0  0  0  0  0  0  0  0  0
   -5.8332    0.2088    1.7348 H   0  0  0  0  0  0  0  0  0  0  0  0
   -4.1344    3.6177    0.1664 H   0  0  0  0  0  0  0  0  0  0  0  0
   -4.3888    3.3972    1.8922 H   0  0  0  0  0  0  0  0  0  0  0  0
   -7.8545    1.8861    1.0167 H   0  0  0  0  0  0  0  0  0  0  0  0
   -6.8351    2.1449    2.4440 H   0  0  0  0  0  0  0  0  0  0  0  0
   -6.5255    4.2071    1.2525 H   0  0  0  0  0  0  0  0  0  0  0  0
   -6.5064    3.4206   -0.3137 H   0  0  0  0  0  0  0  0  0  0  0  0
   -1.1914   -0.2469   -1.6344 H   0  0  0  0  0  0  0  0  0  0  0  0
   -3.0694    0.7939    2.8355 H   0  0  0  0  0  0  0  0  0  0  0  0
   -2.0706    2.4460   -2.5002 H   0  0  0  0  0  0  0  0  0  0  0  0
   -3.6773    2.7586   -3.1544 H   0  0  0  0  0  0  0  0  0  0  0  0
   -3.2771    3.2166   -1.5026 H   0  0  0  0  0  0  0  0  0  0  0  0
   -5.5494    1.9629   -1.2106 H   0  0  0  0  0  0  0  0  0  0  0  0
   -5.4926    0.0828   -1.3910 H   0  0  0  0  0  0  0  0  0  0  0  0
   -5.5422    1.1889   -2.6591 H   0  0  0  0  0  0  0  0  0  0  0  0
   -3.4415   -1.0120   -2.6057 H   0  0  0  0  0  0  0  0  0  0  0  0
   -2.2598    0.1154   -3.3224 H   0  0  0  0  0  0  0  0  0  0  0  0
   -3.9283    0.1913   -3.7965 H   0  0  0  0  0  0  0  0  0  0  0  0
   -0.9271   -0.3885    2.6373 H   0  0  0  0  0  0  0  0  0  0  0  0
    1.4404    0.7249    0.3616 H   0  0  0  0  0  0  0  0  0  0  0  0
    1.6471   -4.2301    0.1525 H   0  0  0  0  0  0  0  0  0  0  0  0
    3.7042   -2.9579    0.0066 H   0  0  0  0  0  0  0  0  0  0  0  0
   -0.5730   -5.0580   -0.5622 H   0  0  0  0  0  0  0  0  0  0  0  0
   -0.6522   -3.6610   -1.6745 H   0  0  0  0  0  0  0  0  0  0  0  0
    5.1880   -1.7605    1.0827 H   0  0  0  0  0  0  0  0  0  0  0  0
    3.0589    1.4761   -0.8852 H   0  0  0  0  0  0  0  0  0  0  0  0
   -3.0436   -3.2879   -0.9825 H   0  0  0  0  0  0  0  0  0  0  0  0
   -2.8089   -4.8882   -1.7305 H   0  0  0  0  0  0  0  0  0  0  0  0
    7.2359   -0.4790    0.9456 H   0  0  0  0  0  0  0  0  0  0  0  0
    5.0858    2.7547   -0.9704 H   0  0  0  0  0  0  0  0  0  0  0  0
   -2.6299   -5.7333    0.3985 H   0  0  0  0  0  0  0  0  0  0  0  0
    8.2081    3.7316   -0.7013 H   0  0  0  0  0  0  0  0  0  0  0  0
  1 21  1  0  0  0  0
  1 27  1  0  0  0  0
  2 30  1  0  0  0  0
  2 66  1  0  0  0  0
  3 34  1  0  0  0  0
  3 67  1  0  0  0  0
  4 34  2  0  0  0  0
  5  6  1  0  0  0  0
  5  7  1  0  0  0  0
  5 11  1  0  0  0  0
  6  8  1  0  0  0  0
  6 35  1  0  0  0  0
  6 36  1  0  0  0  0
  7  9  1  0  0  0  0
  7 37  1  0  0  0  0
  7 38  1  0  0  0  0
  8  9  1  0  0  0  0
  8 39  1  0  0  0  0
  8 40  1  0  0  0  0
  9 41  1  0  0  0  0
  9 42  1  0  0  0  0
 10 12  1  0  0  0  0
 10 15  1  0  0  0  0
 10 16  1  0  0  0  0
 10 17  1  0  0  0  0
 11 12  2  0  0  0  0
 11 14  1  0  0  0  0
 12 13  1  0  0  0  0
 13 18  2  0  0  0  0
 13 43  1  0  0  0  0
 14 19  2  0  0  0  0
 14 44  1  0  0  0  0
 15 45  1  0  0  0  0
 15 46  1  0  0  0  0
 15 47  1  0  0  0  0
 16 48  1  0  0  0  0
 16 49  1  0  0  0  0
 16 50  1  0  0  0  0
 17 51  1  0  0  0  0
 17 52  1  0  0  0  0
 17 53  1  0  0  0  0
 18 19  1  0  0  0  0
 18 20  1  0  0  0  0
 19 54  1  0  0  0  0
 20 21  2  0  0  0  0
 20 22  1  0  0  0  0
 21 24  1  0  0  0  0
 22 23  2  0  0  0  0
 22 55  1  0  0  0  0
 23 25  1  0  0  0  0
 23 26  1  0  0  0  0
 24 25  2  0  0  0  0
 24 56  1  0  0  0  0
 25 57  1  0  0  0  0
 26 28  2  0  0  0  0
 26 29  1  0  0  0  0
 27 30  1  0  0  0  0
 27 58  1  0  0  0  0
 27 59  1  0  0  0  0
 28 31  1  0  0  0  0
 28 60  1  0  0  0  0
 29 32  2  0  0  0  0
 29 61  1  0  0  0  0
 30 62  1  0  0  0  0
 30 63  1  0  0  0  0
 31 33  2  0  0  0  0
 31 64  1  0  0  0  0
 32 33  1  0  0  0  0
 32 65  1  0  0  0  0
 33 34  1  0  0  0  0
M  END
> <PUBCHEM_COMPOUND_CID>
11518241

> <PUBCHEM_CONFORMER_RMSD>
1

> <PUBCHEM_CONFORMER_DIVERSEORDER>
1
3
11
4
2
6
5
10
12
7
9
8

> <PUBCHEM_MMFF94_PARTIAL_CHARGES>
37
1 -0.36
10 0.14
11 0.1
12 -0.14
13 -0.15
14 -0.15
19 -0.15
2 -0.68
21 0.08
22 -0.15
24 -0.15
25 -0.15
27 0.28
28 -0.15
29 -0.15
3 -0.65
30 0.28
31 -0.15
32 -0.15
33 0.09
34 0.63
4 -0.57
43 0.15
44 0.15
5 -0.84
54 0.15
55 0.15
56 0.15
57 0.15
6 0.37
60 0.15
61 0.15
64 0.15
65 0.15
66 0.4
67 0.5
7 0.37

> <PUBCHEM_EFFECTIVE_ROTOR_COUNT>
9

> <PUBCHEM_PHARMACOPHORE_FEATURES>
12
1 1 acceptor
1 2 acceptor
1 2 donor
1 3 acceptor
1 4 acceptor
1 5 cation
3 3 4 34 anion
4 10 15 16 17 hydrophobe
5 5 6 7 8 9 rings
6 11 12 13 14 18 19 rings
6 20 21 22 23 24 25 rings
6 26 28 29 31 32 33 rings

> <PUBCHEM_HEAVY_ATOM_COUNT>
34

> <PUBCHEM_ATOM_DEF_STEREO_COUNT>
0

> <PUBCHEM_ATOM_UDEF_STEREO_COUNT>
0

> <PUBCHEM_BOND_DEF_STEREO_COUNT>
0

> <PUBCHEM_BOND_UDEF_STEREO_COUNT>
0

> <PUBCHEM_ISOTOPIC_ATOM_COUNT>
0

> <PUBCHEM_COMPONENT_COUNT>
1

> <PUBCHEM_CACTVS_TAUTO_COUNT>
1

> <PUBCHEM_CONFORMER_ID>
00AFC12100000001

> <PUBCHEM_MMFF94_ENERGY>
182.8205

> <PUBCHEM_FEATURE_SELFOVERLAP>
60.957

> <PUBCHEM_SHAPE_FINGERPRINT>
10 15 17022625290940851412
10050765 1 18411985767426896074
10190206 1 18341322405403018583
10319926 262 15647338485627571928
10369192 42 18410016507493092125
11135609 201 18409164385707473585
11273773 42 18273213088637219573
12107183 9 18336257939546114202
12166972 35 11747809499123292823
12236239 1 17845928512128666403
13248334 5 17979359655234005362
13540713 5 18337939156827954442
13911987 19 18411692171555863309
14294032 229 18335983146451293047
15131766 46 18342168930509127225
15439362 3 18198629839560809830
15448158 71 17967818254039610364
15513586 35 17244445306276861508
15685185 35 18341899631706776248
1577012 14 18201434766711109148
16126227 98 18412266155058585745
18393751 57 18041003916705182931
19309040 13 18060137604877066046
19315958 150 18195537996437664697
19319366 153 17985823731991792755
20691028 202 18412545431540328208
21033648 144 18259983747366800567
21033648 29 16950845791201899533
21033650 10 16343433825600695874
21236236 1 18266176313494304694
21298829 104 18412547591887668528
21756936 100 18272651263980501791
21792965 131 18115009871514109795
23522609 53 17200522806714478793
25269216 80 16916776431415225261
27425 322 18200876175722122223
2748736 6 18410849971978265488
283562 15 18191863637787141394
2838139 119 18187917340683774260
4403749 210 18409169914031568523
474113 269 8070025541440715593
484985 159 11599737193677617047
504843 32 18408037437797312751
5080951 261 16950848106859419659
5104073 3 16226884415824301025
59755656 520 18413106139071960055
6034566 193 18411978031873213175
6327066 14 18411985754213939824
6677587 24 16596970121571264607
7399639 24 17970071033279691119

> <PUBCHEM_SHAPE_MULTIPOLES>
671.25
18.95
4.9
1.69
26.9
5.91
0.93
-23.51
-1.78
-2.38
0.4
-3.22
-0.68
-1.76

> <PUBCHEM_SHAPE_SELFOVERLAP>
1462.149

> <PUBCHEM_SHAPE_VOLUME>
368.7

> <PUBCHEM_COORDINATE_TYPE>
2
5
10

$$$$
