58557659
  -OEChem-01082000253D

 46 49  0     1  0  0  0  0  0999 V2000
    7.0564    1.0451    0.3037 F   0  0  0  0  0  0  0  0  0  0  0  0
    5.0779    1.7350   -0.3001 F   0  0  0  0  0  0  0  0  0  0  0  0
    5.3970    0.9503    1.7150 F   0  0  0  0  0  0  0  0  0  0  0  0
    3.4522   -0.1070   -2.0595 O   0  0  0  0  0  0  0  0  0  0  0  0
    1.7853   -0.9562   -0.7095 N   0  0  0  0  0  0  0  0  0  0  0  0
   -2.4808    0.6729   -0.1420 N   0  0  0  0  0  0  0  0  0  0  0  0
   -1.4529    2.5652    0.4191 N   0  0  0  0  0  0  0  0  0  0  0  0
    4.0037   -0.8869    0.0377 N   0  0  0  0  0  0  0  0  0  0  0  0
   -5.0272    1.8052    0.5097 N   0  0  0  0  0  0  0  0  0  0  0  0
   -5.8198   -0.3813   -0.1766 N   0  0  0  0  0  0  0  0  0  0  0  0
   -0.1814   -1.9005    0.2101 C   0  0  1  0  0  0  0  0  0  0  0  0
   -0.5912   -0.8776   -0.8755 C   0  0  2  0  0  0  0  0  0  0  0  0
    1.2708   -1.5411    0.5271 C   0  0  0  0  0  0  0  0  0  0  0  0
    0.7138   -0.7325   -1.6742 C   0  0  0  0  0  0  0  0  0  0  0  0
   -1.0624   -1.9816    1.4464 C   0  0  0  0  0  0  0  0  0  0  0  0
   -1.1602    0.4330   -0.3576 C   0  0  0  0  0  0  0  0  0  0  0  0
    3.1068   -0.6150   -0.9891 C   0  0  0  0  0  0  0  0  0  0  0  0
   -0.5354   -3.0070    2.4286 C   0  0  0  0  0  0  0  0  0  0  0  0
   -0.5431    1.6171   -0.0037 C   0  0  0  0  0  0  0  0  0  0  0  0
   -2.6140    1.9617    0.3231 C   0  0  0  0  0  0  0  0  0  0  0  0
   -3.6413   -0.0892   -0.2930 C   0  0  0  0  0  0  0  0  0  0  0  0
   -4.8269    0.5351    0.0445 C   0  0  0  0  0  0  0  0  0  0  0  0
   -3.9229    2.5006    0.6428 C   0  0  0  0  0  0  0  0  0  0  0  0
   -3.8896   -1.3950   -0.7255 C   0  0  0  0  0  0  0  0  0  0  0  0
    5.4135   -0.5931   -0.0741 C   0  0  0  0  0  0  0  0  0  0  0  0
   -5.2610   -1.5537   -0.6437 C   0  0  0  0  0  0  0  0  0  0  0  0
    5.7328    0.7966    0.4164 C   0  0  0  0  0  0  0  0  0  0  0  0
   -0.1755   -2.8894   -0.2733 H   0  0  0  0  0  0  0  0  0  0  0  0
   -1.3228   -1.3143   -1.5605 H   0  0  0  0  0  0  0  0  0  0  0  0
    1.3573   -0.7848    1.3151 H   0  0  0  0  0  0  0  0  0  0  0  0
    1.8638   -2.4189    0.8022 H   0  0  0  0  0  0  0  0  0  0  0  0
    0.7997   -1.5250   -2.4275 H   0  0  0  0  0  0  0  0  0  0  0  0
    0.8355    0.2322   -2.1770 H   0  0  0  0  0  0  0  0  0  0  0  0
   -1.1251   -1.0147    1.9575 H   0  0  0  0  0  0  0  0  0  0  0  0
   -2.0780   -2.2707    1.1644 H   0  0  0  0  0  0  0  0  0  0  0  0
    0.4337   -2.7138    2.8436 H   0  0  0  0  0  0  0  0  0  0  0  0
   -1.2308   -3.1131    3.2679 H   0  0  0  0  0  0  0  0  0  0  0  0
   -0.4277   -3.9899    1.9584 H   0  0  0  0  0  0  0  0  0  0  0  0
    0.5137    1.8418   -0.0279 H   0  0  0  0  0  0  0  0  0  0  0  0
    3.6735   -1.2737    0.9144 H   0  0  0  0  0  0  0  0  0  0  0  0
   -3.9879    3.5366    1.0125 H   0  0  0  0  0  0  0  0  0  0  0  0
   -3.2067   -2.1615   -1.0575 H   0  0  0  0  0  0  0  0  0  0  0  0
    5.9479   -1.3360    0.5262 H   0  0  0  0  0  0  0  0  0  0  0  0
    5.7292   -0.7075   -1.1161 H   0  0  0  0  0  0  0  0  0  0  0  0
   -6.8066   -0.2269   -0.0230 H   0  0  0  0  0  0  0  0  0  0  0  0
   -5.8946   -2.3985   -0.8747 H   0  0  0  0  0  0  0  0  0  0  0  0
  1 27  1  0  0  0  0
  2 27  1  0  0  0  0
  3 27  1  0  0  0  0
  4 17  2  0  0  0  0
  5 13  1  0  0  0  0
  5 14  1  0  0  0  0
  5 17  1  0  0  0  0
  6 16  1  0  0  0  0
  6 20  1  0  0  0  0
  6 21  1  0  0  0  0
  7 19  1  0  0  0  0
  7 20  2  0  0  0  0
  8 17  1  0  0  0  0
  8 25  1  0  0  0  0
  8 40  1  0  0  0  0
  9 22  1  0  0  0  0
  9 23  2  0  0  0  0
 10 22  1  0  0  0  0
 10 26  1  0  0  0  0
 10 45  1  0  0  0  0
 11 12  1  0  0  0  0
 11 13  1  0  0  0  0
 11 15  1  0  0  0  0
 11 28  1  0  0  0  0
 12 14  1  0  0  0  0
 12 16  1  0  0  0  0
 12 29  1  0  0  0  0
 13 30  1  0  0  0  0
 13 31  1  0  0  0  0
 14 32  1  0  0  0  0
 14 33  1  0  0  0  0
 15 18  1  0  0  0  0
 15 34  1  0  0  0  0
 15 35  1  0  0  0  0
 16 19  2  0  0  0  0
 18 36  1  0  0  0  0
 18 37  1  0  0  0  0
 18 38  1  0  0  0  0
 19 39  1  0  0  0  0
 20 23  1  0  0  0  0
 21 22  2  0  0  0  0
 21 24  1  0  0  0  0
 23 41  1  0  0  0  0
 24 26  2  0  0  0  0
 24 42  1  0  0  0  0
 25 27  1  0  0  0  0
 25 43  1  0  0  0  0
 25 44  1  0  0  0  0
 26 46  1  0  0  0  0
M  END
> <PUBCHEM_COMPOUND_CID>
58557659

> <PUBCHEM_CONFORMER_RMSD>
0.8

> <PUBCHEM_CONFORMER_DIVERSEORDER>
1
13
24
10
22
8
23
20
5
16
14
19
6
18
2
9
25
7
15
12
21
11
4
17
3

> <PUBCHEM_MMFF94_PARTIAL_CHARGES>
30
1 -0.34
10 0.03
12 0.18
13 0.3
14 0.3
16 -0.33
17 0.69
19 0.08
2 -0.34
20 0.1
21 -0.08
22 -0.03
23 0.47
24 -0.15
25 0.3
26 -0.3
27 1.02
3 -0.34
39 0.15
4 -0.57
40 0.37
41 0.06
42 0.15
45 0.27
46 0.15
5 -0.66
6 0.38
7 -0.57
8 -0.73
9 -0.58

> <PUBCHEM_EFFECTIVE_ROTOR_COUNT>
7

> <PUBCHEM_PHARMACOPHORE_FEATURES>
11
1 10 cation
1 10 donor
1 18 hydrophobe
1 4 acceptor
1 8 donor
1 9 acceptor
3 6 7 20 cation
5 10 21 22 24 26 rings
5 5 11 12 13 14 rings
5 6 7 16 19 20 rings
6 6 9 20 21 22 23 rings

> <PUBCHEM_HEAVY_ATOM_COUNT>
27

> <PUBCHEM_ATOM_DEF_STEREO_COUNT>
2

> <PUBCHEM_ATOM_UDEF_STEREO_COUNT>
0

> <PUBCHEM_BOND_DEF_STEREO_COUNT>
0

> <PUBCHEM_BOND_UDEF_STEREO_COUNT>
0

> <PUBCHEM_ISOTOPIC_ATOM_COUNT>
0

> <PUBCHEM_COMPONENT_COUNT>
1

> <PUBCHEM_CACTVS_TAUTO_COUNT>
6

> <PUBCHEM_CONFORMER_ID>
037D84DB00000001

> <PUBCHEM_MMFF94_ENERGY>
49.1916

> <PUBCHEM_FEATURE_SELFOVERLAP>
56.055

> <PUBCHEM_SHAPE_FINGERPRINT>
10906281 52 18338818782612666156
11524674 6 13623524675620209432
11578080 2 12606310321184730745
11796584 16 11458422423580146928
121448 382 18187369826758619971
12236239 1 18259984838346840903
12633257 1 17530968012268868782
13402501 40 18202841076443130712
13533116 47 18261671472700676082
13583140 156 15070062011349128708
13914758 101 16370996374437632677
14341114 328 18338794511762980513
14739800 52 18340754975835215258
14787075 74 18409445894995981931
14840074 17 16588021308111967250
17349148 13 17458637682885066375
17980427 23 18408047316253164797
20511986 3 18115859716665406309
23352939 185 16487258772117539411
23402539 116 18410573968156491047
23559900 14 18263664887076002222
23622692 88 16950284018613031062
2838139 119 17917418827176542284
2916195 48 18272647944113304208
34797466 226 17275109418222110245
34934 24 18267022748663861925
392239 28 18262531380723477891
4325135 7 18272650160031618596
5104073 3 18340212864651865163
59554788 281 17822303365638496131
7226269 152 18260546757560773963
9981440 41 18409455786301085290

> <PUBCHEM_SHAPE_MULTIPOLES>
498.07
13.8
2.71
1.43
14.79
0.01
0.22
5.16
0.54
-1.87
1.44
0.71
-0.83
-0.31

> <PUBCHEM_SHAPE_SELFOVERLAP>
1088.087

> <PUBCHEM_SHAPE_VOLUME>
275.3

> <PUBCHEM_COORDINATE_TYPE>
2
5
10

$$$$
